/*--------------------------------*- C++ -*----------------------------------*\
  =========                 |
  \\      /  F ield         | OpenFOAM: The Open Source CFD Toolbox
   \\    /   O peration     | Website:  https://openfoam.org
    \\  /    A nd           | Version:  8
     \\/     M anipulation  |
\*---------------------------------------------------------------------------*/
FoamFile
{
    version     2.0;
    format      ascii;
    class       dictionary;
    location    "system";
    object      fvSolution;
}
// * * * * * * * * * * * * * * * * * * * * * * * * * * * * * * * * * * * * * //

solvers
{
    p
    {
        solver          GAMG;
        tolerance       1e-06;
        relTol          0.001;
        smoother        GaussSeidel;
        maxIter         100;
    }

     "(U|k|omega|kt|epsilont)"
    {
        solver          smoothSolver;
        smoother        GaussSeidel;
        tolerance       1e-8;
        relTol          0.1;
        nSweeps         1;
    }
    
    T
    {
        solver          smoothSolver;
        smoother        GaussSeidel;
        nSweeps         2;
        tolerance       1e-08;
        relTol          1e-06;
    }
    
        p_rgh
    {
        solver          PCG;
        preconditioner  DIC;
        tolerance       1e-08;
        relTol          0.01;
    }
}

SIMPLE
{
    nNonOrthogonalCorrectors 0;
    consistent yes;
 /*
    residualControl
    {
        p               1e-6;
        U               1e-5;
        "(k|omega|e)"   1e-5;
    }

    nNonOrthogonalCorrectors 0;
    pMinFactor      0.1;
    pMaxFactor      2;
    */
}

relaxationFactors
{
    fields
    {
        p               0.1;
        p_rgh           0.1;
        Q               0.1;
    }
    equations
    {
        "(U|k|omega)"   0.05;
        kt              0.05;
        epsilont        0.05;
        T               0.05;
    }
}

// ************************************************************************* //
