/*--------------------------------*- C++ -*----------------------------------*\ 
  =========                 | 
  \      /  F ield         | OpenFOAM: The Open Source CFD Toolbox 
   \    /   O peration     | Website:  https://openfoam.org 
    \  /    A nd           | Version:  6 
     \/     M anipulation  | 
\*---------------------------------------------------------------------------*/ 
FoamFile 
{ 
    version     2.0; 
    format      ascii; 
    class       dictionary; 
    object      blockMeshDict; 
} 
// * * * * * * * * * * * * * * * * * * * * * * * * * * * * * * * * * * * * * // 

convertToMeters 1; 

vertices
(
    (0.0 0.0 0)
    (61.0 -30.0 0)
    (3.624657677526838 -30.0 0)
    (0.0 -30.0 0)
    (-30.0 0.0 0)
    (0.0 30.0 0)
    (3.624657677526838 30.0 0)
    (61.0 30.0 0)
    (61.0 0.3 0)
    (61.0 0.0 0)
    (61.0 -0.3 0)
    (1.042931898598441 0.2969121959144373 0)
    (1.0 0.0 0)
    (1.042931898598441 -0.2969121959144373 0)
    (0.24283405925912727 0.35931042482543213 0)
    (0.25 0.05939602154793316 0)
    (0.25 -0.05939602154793316 0)
    (0.25716594074087273 -0.35931042482543213 0)
    (-0.3 0.0 0)
    (0.0 0.0 1)
    (61.0 -30.0 1)
    (3.624657677526838 -30.0 1)
    (0.0 -30.0 1)
    (-30.0 0.0 1)
    (0.0 30.0 1)
    (3.624657677526838 30.0 1)
    (61.0 30.0 1)
    (61.0 0.3 1)
    (61.0 0.0 1)
    (61.0 -0.3 1)
    (1.042931898598441 0.2969121959144373 1)
    (1.0 0.0 1)
    (1.042931898598441 -0.2969121959144373 1)
    (0.24283405925912727 0.35931042482543213 1)
    (0.25 0.05939602154793316 1)
    (0.25 -0.05939602154793316 1)
    (0.25716594074087273 -0.35931042482543213 1)
    (-0.3 0.0 1)
);

blocks
(
    hex (2 1 10 13 21 20 29 32) (304 129 1) simpleGrading (1667.6849451072706 146.88441920551512 146.88441920551512 1667.6849451072706 0.014663648570494651 0.014663648570494651 0.014663648570494651 0.014663648570494651 1 1 1 1) 
    hex (3 2 13 17 22 21 32 36) (97 129 1) simpleGrading (0.004455000829839457 0.9368785607282005 0.9368785607282005 0.004455000829839457 0.014645555564407173 0.014663648570494651 0.014663648570494651 0.014645555564407173 1 1 1 1) 
    hex (4 3 17 18 23 22 36 37) (47 129 1) edgeGrading (0.06666666666666667 0.4 0.4 0.06666666666666667 0.014663648570494651 0.014645555564407173 0.014645555564407173 0.014663648570494651 1 1 1 1) 
    hex (4 18 14 5 23 37 33 24) (129 47 1) edgeGrading (0.014663648570494651 0.014645632705944434 0.014645632705944434 0.014663648570494651 0.06666666666666667 0.4 0.4 0.06666666666666667 1 1 1 1) 
    hex (14 11 6 5 33 30 25 24) (96 129 1) edgeGrading (0.8071506861984387 0.004455000829839457 0.004455000829839457 0.8071506861984387 68.27974045765299 68.19585147533762 68.19585147533762 68.27974045765299 1 1 1 1) 
    hex (11 8 7 6 30 27 26 25) (304 129 1) simpleGrading (146.88441920551512 1667.6849451072706 1667.6849451072706 146.88441920551512 68.19585147533762 68.19585147533762 68.19585147533762 68.19585147533762 1 1 1 1) 
    hex (12 9 8 11 31 28 27 30) (304 154 1) simpleGrading (146.88441920551512 1832.9560713118315 1) 
    hex (15 12 11 14 34 31 30 33) (96 154 1) egeeGrading (0.8 0.8071506861984387 0.8071506861984387 0.8 1832.9560713118315 1832.9560713118315 1832.9560713118315 1832.9560713118315 1 1 1 1) 
    hex (0 15 14 18 19 34 33 37) (47 154 1) edgeGrading (2.5 0.4 0.4 2.5 1832.9560713118315 1832.9560713118315 1832.9560713118315 1832.9560713118315 1 1 1 1) 
    hex (18 17 16 0 37 36 35 19) (47 154 1) edgeGrading (0.4 2.5 2.5 0.4 0.000545566811802701 0.000545566811802701 0.000545566811802701 0.000545566811802701 1 1 1 1) 
    hex (17 13 12 16 36 32 31 35) (97 154 1) edgeGrading (0.9368785607282005 0.8 0.8 0.9368785607282005 0.000545566811802701 0.000545566811802701 0.000545566811802701 0.000545566811802701 1 1 1 1) 
    hex (13 10 9 12 32 29 28 31) (304 154 1) simpleGrading (146.88441920551512 0.000545566811802701 1) 
);

edges
(
    polyLine 11 14
    (
        (1.0426848985984412 0.2969481959144373 0)
        (1.042071640388388 0.2970368421185315 0)
        (1.0408681726808606 0.2972117026681284 0)
        (1.0389690328997205 0.2974870677086181 0)
        (1.0366342127170518 0.29782364841648756 0)
        (1.0338246590777613 0.29822841528569893 0)
        (1.0304329491034232 0.2987149094455707 0)
        (1.0265746712395374 0.29926534626980905 0)
        (1.0222080099882942 0.29988581832184474 0)
        (1.0173630620741585 0.3005697253502988 0)
        (1.0120179213317877 0.30132082402298294 0)
        (1.0061592117100848 0.3021375846847511 0)
        (0.99985531990001 0.3030101176934442 0)
        (0.9930630039682797 0.30394334011578644 0)
        (0.9857978773261744 0.3049325548621686 0)
        (0.9780994052278422 0.3059715803776237 0)
        (0.9699311799307674 0.30706421481572255 0)
        (0.9613245816127212 0.3082030997850666 0)
        (0.9523093411953298 0.30938434947620375 0)
        (0.9428646282391714 0.3106088447695721 0)
        (0.9329827722216361 0.3118757463453164 0)
        (0.9227199042210485 0.3131746937753329 0)
        (0.9120741506226892 0.3145073336760045 0)
        (0.9010142935595655 0.31587358999671533 0)
        (0.8896111620259303 0.31726313149717866 0)
        (0.8778554529913872 0.31867746038164396 0)
        (0.8657333189546556 0.32011524556942805 0)
        (0.8532871032524363 0.3215699433459622 0)
        (0.8405125581288904 0.3230414210863646 0)
        (0.8274099997411132 0.3245268051876686 0)
        (0.8140278473832718 0.32601904210765564 0)
        (0.8003561233442857 0.3275195803167427 0)
        (0.7863967862373185 0.3290247503330357 0)
        (0.772170149537516 0.3305314340733172 0)
        (0.7577043073138815 0.3320340915950011 0)
        (0.7430104183717358 0.33353210409452566 0)
        (0.7280682691741973 0.33502462631803426 0)
        (0.7129157983659767 0.33650520668970596 0)
        (0.6975646779984415 0.3379720672279351 0)
        (0.6820284642894381 0.33942103986859956 0)
        (0.6663217662953396 0.34085022332582204 0)
        (0.6504356178820868 0.342257312667398 0)
        (0.6344068922571486 0.34363632457684345 0)
        (0.6182461527607795 0.3449853853330116 0)
        (0.6019593408310692 0.3463010263674737 0)
        (0.5855504298137295 0.34758097453240355 0)
        (0.5690495145650022 0.3488185756749669 0)
        (0.5524631454623795 0.3500133077028282 0)
        (0.5358030810095984 0.35115902148782796 0)
        (0.519082576850544 0.35225447696083323 0)
        (0.5022940510874492 0.35329457015923105 0)
        (0.48548783265420375 0.35427357321824215 0)
        (0.46866688738113815 0.3551898063272095 0)
        (0.45181406225716 0.3560402942363051 0)
        (0.43496970097564996 0.3568180447388756 0)
        (0.41814227291731554 0.3575215319078571 0)
        (0.40133472963238626 0.3581454456307969 0)
        (0.38456508282877033 0.3586866548479086 0)
        (0.3678419226405673 0.3591402447255196 0)
        (0.3511850796605479 0.3595029765424078 0)
        (0.33458951032631856 0.359770882523123 0)
        (0.31808483768333334 0.3599393183815902 0)
        (0.3016757570939661 0.36000589603563865 0)
        (0.28536835945842043 0.35996594443777535 0)
        (0.2691785345784737 0.3598165959446999 0)
        (0.25309718693173017 0.3595534765229583 0)
    )
    polyLine 30 33
    (
        (1.0426848985984412 0.2969481959144373 1)
        (1.042071640388388 0.2970368421185315 1)
        (1.0408681726808606 0.2972117026681284 1)
        (1.0389690328997205 0.2974870677086181 1)
        (1.0366342127170518 0.29782364841648756 1)
        (1.0338246590777613 0.29822841528569893 1)
        (1.0304329491034232 0.2987149094455707 1)
        (1.0265746712395374 0.29926534626980905 1)
        (1.0222080099882942 0.29988581832184474 1)
        (1.0173630620741585 0.3005697253502988 1)
        (1.0120179213317877 0.30132082402298294 1)
        (1.0061592117100848 0.3021375846847511 1)
        (0.99985531990001 0.3030101176934442 1)
        (0.9930630039682797 0.30394334011578644 1)
        (0.9857978773261744 0.3049325548621686 1)
        (0.9780994052278422 0.3059715803776237 1)
        (0.9699311799307674 0.30706421481572255 1)
        (0.9613245816127212 0.3082030997850666 1)
        (0.9523093411953298 0.30938434947620375 1)
        (0.9428646282391714 0.3106088447695721 1)
        (0.9329827722216361 0.3118757463453164 1)
        (0.9227199042210485 0.3131746937753329 1)
        (0.9120741506226892 0.3145073336760045 1)
        (0.9010142935595655 0.31587358999671533 1)
        (0.8896111620259303 0.31726313149717866 1)
        (0.8778554529913872 0.31867746038164396 1)
        (0.8657333189546556 0.32011524556942805 1)
        (0.8532871032524363 0.3215699433459622 1)
        (0.8405125581288904 0.3230414210863646 1)
        (0.8274099997411132 0.3245268051876686 1)
        (0.8140278473832718 0.32601904210765564 1)
        (0.8003561233442857 0.3275195803167427 1)
        (0.7863967862373185 0.3290247503330357 1)
        (0.772170149537516 0.3305314340733172 1)
        (0.7577043073138815 0.3320340915950011 1)
        (0.7430104183717358 0.33353210409452566 1)
        (0.7280682691741973 0.33502462631803426 1)
        (0.7129157983659767 0.33650520668970596 1)
        (0.6975646779984415 0.3379720672279351 1)
        (0.6820284642894381 0.33942103986859956 1)
        (0.6663217662953396 0.34085022332582204 1)
        (0.6504356178820868 0.342257312667398 1)
        (0.6344068922571486 0.34363632457684345 1)
        (0.6182461527607795 0.3449853853330116 1)
        (0.6019593408310692 0.3463010263674737 1)
        (0.5855504298137295 0.34758097453240355 1)
        (0.5690495145650022 0.3488185756749669 1)
        (0.5524631454623795 0.3500133077028282 1)
        (0.5358030810095984 0.35115902148782796 1)
        (0.519082576850544 0.35225447696083323 1)
        (0.5022940510874492 0.35329457015923105 1)
        (0.48548783265420375 0.35427357321824215 1)
        (0.46866688738113815 0.3551898063272095 1)
        (0.45181406225716 0.3560402942363051 1)
        (0.43496970097564996 0.3568180447388756 1)
        (0.41814227291731554 0.3575215319078571 1)
        (0.40133472963238626 0.3581454456307969 1)
        (0.38456508282877033 0.3586866548479086 1)
        (0.3678419226405673 0.3591402447255196 1)
        (0.3511850796605479 0.3595029765424078 1)
        (0.33458951032631856 0.359770882523123 1)
        (0.31808483768333334 0.3599393183815902 1)
        (0.3016757570939661 0.36000589603563865 1)
        (0.28536835945842043 0.35996594443777535 1)
        (0.2691785345784737 0.3598165959446999 1)
        (0.25309718693173017 0.3595534765229583 1)
    )
    polyLine 14 18
    (
        (0.237148879827894 0.3591723261958155 0)
        (0.2213476865838485 0.35867071695763547 0)
        (0.20568003142794491 0.35804401520590057 0)
        (0.19016857823766486 0.35728831200034145 0)
        (0.17481073343049103 0.3564004114543744 0)
        (0.1596028699633789 0.35537423212446057 0)
        (0.14456267257907646 0.35420672436856093 0)
        (0.12969267191203956 0.35289334910657455 0)
        (0.1149604536117442 0.35142608672489833 0)
        (0.10036474805056783 0.34979553199394586 0)
        (0.08593840441152352 0.3479994644491272 0)
        (0.07162335434071043 0.3460229880984509 0)
        (0.05739223043917501 0.343848940050321 0)
        (0.04326329335471458 0.34146762196239544 0)
        (0.029184816805611052 0.3388558388119193 0)
        (0.015121315821780654 0.3359865534751558 0)
        (0.0010230854868496647 0.33282604450233233 0)
        (-0.01318781032170925 0.3293237607541835 0)
        (-0.02757186564190165 0.3254232359268146 0)
        (-0.042220607082069816 0.32104550789218345 0)
        (-0.057255161756277186 0.3160818983251275 0)
        (-0.07280717247615778 0.310389866608751 0)
        (-0.08905322910003906 0.3037686239354618 0)
        (-0.10617518946992485 0.2959509787445828 0)
        (-0.12437221792173715 0.2865741924799385 0)
        (-0.1439487910109302 0.2750756160053717 0)
        (-0.16502677222807158 0.2607777040532428 0)
        (-0.18768472669829367 0.2427313537120213 0)
        (-0.21178962051958033 0.21965756942870582 0)
        (-0.23655893109488127 0.190212807333437 0)
        (-0.2605143032306154 0.15303740319778097 0)
        (-0.28107788241118004 0.10769439237965599 0)
        (-0.2950710186925092 0.05557358149782768 0)
        (-0.2988220029355075 0.02655956629185691 0)
    )
    polyLine 33 37
    (
        (0.237148879827894 0.3591723261958155 1)
        (0.2213476865838485 0.35867071695763547 1)
        (0.20568003142794491 0.35804401520590057 1)
        (0.19016857823766486 0.35728831200034145 1)
        (0.17481073343049103 0.3564004114543744 1)
        (0.1596028699633789 0.35537423212446057 1)
        (0.14456267257907646 0.35420672436856093 1)
        (0.12969267191203956 0.35289334910657455 1)
        (0.1149604536117442 0.35142608672489833 1)
        (0.10036474805056783 0.34979553199394586 1)
        (0.08593840441152352 0.3479994644491272 1)
        (0.07162335434071043 0.3460229880984509 1)
        (0.05739223043917501 0.343848940050321 1)
        (0.04326329335471458 0.34146762196239544 1)
        (0.029184816805611052 0.3388558388119193 1)
        (0.015121315821780654 0.3359865534751558 1)
        (0.0010230854868496647 0.33282604450233233 1)
        (-0.01318781032170925 0.3293237607541835 1)
        (-0.02757186564190165 0.3254232359268146 1)
        (-0.042220607082069816 0.32104550789218345 1)
        (-0.057255161756277186 0.3160818983251275 1)
        (-0.07280717247615778 0.310389866608751 1)
        (-0.08905322910003906 0.3037686239354618 1)
        (-0.10617518946992485 0.2959509787445828 1)
        (-0.12437221792173715 0.2865741924799385 1)
        (-0.1439487910109302 0.2750756160053717 1)
        (-0.16502677222807158 0.2607777040532428 1)
        (-0.18768472669829367 0.2427313537120213 1)
        (-0.21178962051958033 0.21965756942870582 1)
        (-0.23655893109488127 0.190212807333437 1)
        (-0.2605143032306154 0.15303740319778097 1)
        (-0.28107788241118004 0.10769439237965599 1)
        (-0.2950710186925092 0.05557358149782768 1)
        (-0.2988220029355075 0.02655956629185691 1)
    )
    polyLine 18 17
    (
        (-0.28939076080877624 -0.08094528118107017 0)
        (-0.28107788241118004 -0.10769439237965599 0)
        (-0.2605143032306154 -0.15303740319778097 0)
        (-0.23655893109488127 -0.190212807333437 0)
        (-0.21178962051958033 -0.21965756942870582 0)
        (-0.18768472669829367 -0.2427313537120213 0)
        (-0.16502677222807158 -0.2607777040532428 0)
        (-0.1439487910109302 -0.2750756160053717 0)
        (-0.12437221792173715 -0.2865741924799385 0)
        (-0.10617518946992485 -0.2959509787445828 0)
        (-0.08905322910003906 -0.3037686239354618 0)
        (-0.07280717247615778 -0.310389866608751 0)
        (-0.057255161756277186 -0.3160818983251275 0)
        (-0.042220607082069816 -0.32104550789218345 0)
        (-0.02757186564190165 -0.3254232359268146 0)
        (-0.01318781032170925 -0.3293237607541835 0)
        (0.0010230854868496647 -0.33282604450233233 0)
        (0.015121315821780654 -0.3359865534751558 0)
        (0.029184816805611052 -0.3388558388119193 0)
        (0.04326329335471458 -0.34146762196239544 0)
        (0.05739223043917501 -0.343848940050321 0)
        (0.07162335434071043 -0.3460229880984509 0)
        (0.08593840441152352 -0.3479994644491272 0)
        (0.10036474805056783 -0.34979553199394586 0)
        (0.1149604536117442 -0.35142608672489833 0)
        (0.12969267191203956 -0.35289334910657455 0)
        (0.14456267257907646 -0.35420672436856093 0)
        (0.1596028699633789 -0.35537423212446057 0)
        (0.17481073343049103 -0.3564004114543744 0)
        (0.19016857823766486 -0.35728831200034145 0)
        (0.20568003142794491 -0.35804401520590057 0)
        (0.2213476865838485 -0.35867071695763547 0)
        (0.237148879827894 -0.3591723261958155 0)
    )
    polyLine 37 36
    (
        (-0.28939076080877624 -0.08094528118107017 1)
        (-0.28107788241118004 -0.10769439237965599 1)
        (-0.2605143032306154 -0.15303740319778097 1)
        (-0.23655893109488127 -0.190212807333437 1)
        (-0.21178962051958033 -0.21965756942870582 1)
        (-0.18768472669829367 -0.2427313537120213 1)
        (-0.16502677222807158 -0.2607777040532428 1)
        (-0.1439487910109302 -0.2750756160053717 1)
        (-0.12437221792173715 -0.2865741924799385 1)
        (-0.10617518946992485 -0.2959509787445828 1)
        (-0.08905322910003906 -0.3037686239354618 1)
        (-0.07280717247615778 -0.310389866608751 1)
        (-0.057255161756277186 -0.3160818983251275 1)
        (-0.042220607082069816 -0.32104550789218345 1)
        (-0.02757186564190165 -0.3254232359268146 1)
        (-0.01318781032170925 -0.3293237607541835 1)
        (0.0010230854868496647 -0.33282604450233233 1)
        (0.015121315821780654 -0.3359865534751558 1)
        (0.029184816805611052 -0.3388558388119193 1)
        (0.04326329335471458 -0.34146762196239544 1)
        (0.05739223043917501 -0.343848940050321 1)
        (0.07162335434071043 -0.3460229880984509 1)
        (0.08593840441152352 -0.3479994644491272 1)
        (0.10036474805056783 -0.34979553199394586 1)
        (0.1149604536117442 -0.35142608672489833 1)
        (0.12969267191203956 -0.35289334910657455 1)
        (0.14456267257907646 -0.35420672436856093 1)
        (0.1596028699633789 -0.35537423212446057 1)
        (0.17481073343049103 -0.3564004114543744 1)
        (0.19016857823766486 -0.35728831200034145 1)
        (0.20568003142794491 -0.35804401520590057 1)
        (0.2213476865838485 -0.35867071695763547 1)
        (0.237148879827894 -0.3591723261958155 1)
    )
    polyLine 17 13
    (
        (0.25309718693173017 -0.3595534765229583 0)
        (0.2691785345784737 -0.3598165959446999 0)
        (0.28536835945842043 -0.35996594443777535 0)
        (0.3016757570939661 -0.36000589603563865 0)
        (0.31808483768333334 -0.3599393183815902 0)
        (0.33458951032631856 -0.359770882523123 0)
        (0.3511850796605479 -0.3595029765424078 0)
        (0.3678419226405673 -0.3591402447255196 0)
        (0.38456508282877033 -0.3586866548479086 0)
        (0.40133472963238626 -0.3581454456307969 0)
        (0.41814227291731554 -0.3575215319078571 0)
        (0.43496970097564996 -0.3568180447388756 0)
        (0.45181406225716 -0.3560402942363051 0)
        (0.46866688738113815 -0.3551898063272095 0)
        (0.48548783265420375 -0.35427357321824215 0)
        (0.5022940510874492 -0.35329457015923105 0)
        (0.519082576850544 -0.35225447696083323 0)
        (0.5358030810095984 -0.35115902148782796 0)
        (0.5524631454623795 -0.3500133077028282 0)
        (0.5690495145650022 -0.3488185756749669 0)
        (0.5855504298137295 -0.34758097453240355 0)
        (0.6019593408310692 -0.3463010263674737 0)
        (0.6182461527607795 -0.3449853853330116 0)
        (0.6344068922571486 -0.34363632457684345 0)
        (0.6504356178820868 -0.342257312667398 0)
        (0.6663217662953396 -0.34085022332582204 0)
        (0.6820284642894381 -0.33942103986859956 0)
        (0.6975646779984415 -0.3379720672279351 0)
        (0.7129157983659767 -0.33650520668970596 0)
        (0.7280682691741973 -0.33502462631803426 0)
        (0.7430104183717358 -0.33353210409452566 0)
        (0.7577043073138815 -0.3320340915950011 0)
        (0.772170149537516 -0.3305314340733172 0)
        (0.7863967862373185 -0.3290247503330357 0)
        (0.8003561233442857 -0.3275195803167427 0)
        (0.8140278473832718 -0.32601904210765564 0)
        (0.8274099997411132 -0.3245268051876686 0)
        (0.8405125581288904 -0.3230414210863646 0)
        (0.8532871032524363 -0.3215699433459622 0)
        (0.8657333189546556 -0.32011524556942805 0)
        (0.8778554529913872 -0.31867746038164396 0)
        (0.8896111620259303 -0.31726313149717866 0)
        (0.9010142935595655 -0.31587358999671533 0)
        (0.9120741506226892 -0.3145073336760045 0)
        (0.9227199042210485 -0.3131746937753329 0)
        (0.9329827722216361 -0.3118757463453164 0)
        (0.9428646282391714 -0.3106088447695721 0)
        (0.9523093411953298 -0.30938434947620375 0)
        (0.9613245816127212 -0.3082030997850666 0)
        (0.9699311799307674 -0.30706421481572255 0)
        (0.9780994052278422 -0.3059715803776237 0)
        (0.9857978773261744 -0.3049325548621686 0)
        (0.9930630039682797 -0.30394334011578644 0)
        (0.99985531990001 -0.3030101176934442 0)
        (1.0061592117100848 -0.3021375846847511 0)
        (1.0120179213317877 -0.30132082402298294 0)
        (1.0173630620741585 -0.3005697253502988 0)
        (1.0222080099882942 -0.29988581832184474 0)
        (1.0265746712395374 -0.29926534626980905 0)
        (1.0304329491034232 -0.2987149094455707 0)
        (1.0338246590777613 -0.29822841528569893 0)
        (1.0366342127170518 -0.29782364841648756 0)
        (1.0389690328997205 -0.2974870677086181 0)
        (1.0408681726808606 -0.2972117026681284 0)
        (1.042071640388388 -0.2970368421185315 0)
        (1.0426848985984412 -0.2969481959144373 0)
    )
    polyLine 36 32
    (
        (0.25309718693173017 -0.3595534765229583 1)
        (0.2691785345784737 -0.3598165959446999 1)
        (0.28536835945842043 -0.35996594443777535 1)
        (0.3016757570939661 -0.36000589603563865 1)
        (0.31808483768333334 -0.3599393183815902 1)
        (0.33458951032631856 -0.359770882523123 1)
        (0.3511850796605479 -0.3595029765424078 1)
        (0.3678419226405673 -0.3591402447255196 1)
        (0.38456508282877033 -0.3586866548479086 1)
        (0.40133472963238626 -0.3581454456307969 1)
        (0.41814227291731554 -0.3575215319078571 1)
        (0.43496970097564996 -0.3568180447388756 1)
        (0.45181406225716 -0.3560402942363051 1)
        (0.46866688738113815 -0.3551898063272095 1)
        (0.48548783265420375 -0.35427357321824215 1)
        (0.5022940510874492 -0.35329457015923105 1)
        (0.519082576850544 -0.35225447696083323 1)
        (0.5358030810095984 -0.35115902148782796 1)
        (0.5524631454623795 -0.3500133077028282 1)
        (0.5690495145650022 -0.3488185756749669 1)
        (0.5855504298137295 -0.34758097453240355 1)
        (0.6019593408310692 -0.3463010263674737 1)
        (0.6182461527607795 -0.3449853853330116 1)
        (0.6344068922571486 -0.34363632457684345 1)
        (0.6504356178820868 -0.342257312667398 1)
        (0.6663217662953396 -0.34085022332582204 1)
        (0.6820284642894381 -0.33942103986859956 1)
        (0.6975646779984415 -0.3379720672279351 1)
        (0.7129157983659767 -0.33650520668970596 1)
        (0.7280682691741973 -0.33502462631803426 1)
        (0.7430104183717358 -0.33353210409452566 1)
        (0.7577043073138815 -0.3320340915950011 1)
        (0.772170149537516 -0.3305314340733172 1)
        (0.7863967862373185 -0.3290247503330357 1)
        (0.8003561233442857 -0.3275195803167427 1)
        (0.8140278473832718 -0.32601904210765564 1)
        (0.8274099997411132 -0.3245268051876686 1)
        (0.8405125581288904 -0.3230414210863646 1)
        (0.8532871032524363 -0.3215699433459622 1)
        (0.8657333189546556 -0.32011524556942805 1)
        (0.8778554529913872 -0.31867746038164396 1)
        (0.8896111620259303 -0.31726313149717866 1)
        (0.9010142935595655 -0.31587358999671533 1)
        (0.9120741506226892 -0.3145073336760045 1)
        (0.9227199042210485 -0.3131746937753329 1)
        (0.9329827722216361 -0.3118757463453164 1)
        (0.9428646282391714 -0.3106088447695721 1)
        (0.9523093411953298 -0.30938434947620375 1)
        (0.9613245816127212 -0.3082030997850666 1)
        (0.9699311799307674 -0.30706421481572255 1)
        (0.9780994052278422 -0.3059715803776237 1)
        (0.9857978773261744 -0.3049325548621686 1)
        (0.9930630039682797 -0.30394334011578644 1)
        (0.99985531990001 -0.3030101176934442 1)
        (1.0061592117100848 -0.3021375846847511 1)
        (1.0120179213317877 -0.30132082402298294 1)
        (1.0173630620741585 -0.3005697253502988 1)
        (1.0222080099882942 -0.29988581832184474 1)
        (1.0265746712395374 -0.29926534626980905 1)
        (1.0304329491034232 -0.2987149094455707 1)
        (1.0338246590777613 -0.29822841528569893 1)
        (1.0366342127170518 -0.29782364841648756 1)
        (1.0389690328997205 -0.2974870677086181 1)
        (1.0408681726808606 -0.2972117026681284 1)
        (1.042071640388388 -0.2970368421185315 1)
        (1.0426848985984412 -0.2969481959144373 1)
    )
    spline 12 15
    (
        (0.999753 3.6e-05 0)
        (0.999013 0.000143 0)
        (0.997781 0.000322 0)
        (0.996057 0.000572 0)
        (0.993844 0.000891 0)
        (0.991144 0.00128 0)
        (0.987958 0.001737 0)
        (0.984292 0.00226 0)
        (0.980147 0.002849 0)
        (0.975528 0.003501 0)
        (0.97044 0.004216 0)
        (0.964888 0.00499 0)
        (0.958877 0.005822 0)
        (0.952414 0.00671 0)
        (0.945503 0.007651 0)
        (0.938153 0.008643 0)
        (0.930371 0.009684 0)
        (0.922164 0.01077 0)
        (0.91354 0.0119 0)
        (0.904508 0.013071 0)
        (0.895078 0.01428 0)
        (0.885257 0.015523 0)
        (0.875056 0.0168 0)
        (0.864484 0.018106 0)
        (0.853553 0.019438 0)
        (0.842274 0.020795 0)
        (0.830656 0.022173 0)
        (0.818712 0.023569 0)
        (0.806454 0.024981 0)
        (0.793893 0.026405 0)
        (0.781042 0.027838 0)
        (0.767913 0.029279 0)
        (0.754521 0.030723 0)
        (0.740877 0.032168 0)
        (0.726995 0.03361 0)
        (0.71289 0.035048 0)
        (0.698574 0.036478 0)
        (0.684062 0.037896 0)
        (0.669369 0.0393 0)
        (0.654508 0.040686 0)
        (0.639496 0.042052 0)
        (0.624345 0.043394 0)
        (0.609072 0.044708 0)
        (0.593691 0.045992 0)
        (0.578217 0.047242 0)
        (0.562667 0.048455 0)
        (0.547054 0.049626 0)
        (0.531395 0.050754 0)
        (0.515705 0.051833 0)
        (0.5 0.052862 0)
        (0.484295 0.053835 0)
        (0.468605 0.054749 0)
        (0.452946 0.055602 0)
        (0.437333 0.05639 0)
        (0.421783 0.057108 0)
        (0.406309 0.057755 0)
        (0.390928 0.058326 0)
        (0.375655 0.058819 0)
        (0.360504 0.05923 0)
        (0.345492 0.059557 0)
        (0.330631 0.059797 0)
        (0.315938 0.059947 0)
        (0.301426 0.060006 0)
        (0.28711 0.059971 0)
        (0.273005 0.059841 0)
        (0.259123 0.059614 0)
    )
    spline 31 34
    (
        (0.999753 3.6e-05 1)
        (0.999013 0.000143 1)
        (0.997781 0.000322 1)
        (0.996057 0.000572 1)
        (0.993844 0.000891 1)
        (0.991144 0.00128 1)
        (0.987958 0.001737 1)
        (0.984292 0.00226 1)
        (0.980147 0.002849 1)
        (0.975528 0.003501 1)
        (0.97044 0.004216 1)
        (0.964888 0.00499 1)
        (0.958877 0.005822 1)
        (0.952414 0.00671 1)
        (0.945503 0.007651 1)
        (0.938153 0.008643 1)
        (0.930371 0.009684 1)
        (0.922164 0.01077 1)
        (0.91354 0.0119 1)
        (0.904508 0.013071 1)
        (0.895078 0.01428 1)
        (0.885257 0.015523 1)
        (0.875056 0.0168 1)
        (0.864484 0.018106 1)
        (0.853553 0.019438 1)
        (0.842274 0.020795 1)
        (0.830656 0.022173 1)
        (0.818712 0.023569 1)
        (0.806454 0.024981 1)
        (0.793893 0.026405 1)
        (0.781042 0.027838 1)
        (0.767913 0.029279 1)
        (0.754521 0.030723 1)
        (0.740877 0.032168 1)
        (0.726995 0.03361 1)
        (0.71289 0.035048 1)
        (0.698574 0.036478 1)
        (0.684062 0.037896 1)
        (0.669369 0.0393 1)
        (0.654508 0.040686 1)
        (0.639496 0.042052 1)
        (0.624345 0.043394 1)
        (0.609072 0.044708 1)
        (0.593691 0.045992 1)
        (0.578217 0.047242 1)
        (0.562667 0.048455 1)
        (0.547054 0.049626 1)
        (0.531395 0.050754 1)
        (0.515705 0.051833 1)
        (0.5 0.052862 1)
        (0.484295 0.053835 1)
        (0.468605 0.054749 1)
        (0.452946 0.055602 1)
        (0.437333 0.05639 1)
        (0.421783 0.057108 1)
        (0.406309 0.057755 1)
        (0.390928 0.058326 1)
        (0.375655 0.058819 1)
        (0.360504 0.05923 1)
        (0.345492 0.059557 1)
        (0.330631 0.059797 1)
        (0.315938 0.059947 1)
        (0.301426 0.060006 1)
        (0.28711 0.059971 1)
        (0.273005 0.059841 1)
        (0.259123 0.059614 1)
    )
    arc 4 5 (-21.21321750837679 21.213189362806727 0)
    arc 3 4 (-21.21321750837679 -21.213189362806727 0)
    arc 23 24 (-21.21321750837679 21.213189362806727 1)
    arc 22 23 (-21.21321750837679 -21.213189362806727 1)
    spline 15 0
    (
        (0.245479 0.059288 0)
        (0.232087 0.058863 0)
        (0.218958 0.058338 0)
        (0.206107 0.057712 0)
        (0.193546 0.056986 0)
        (0.181288 0.056159 0)
        (0.169344 0.055232 0)
        (0.157726 0.054206 0)
        (0.146447 0.053083 0)
        (0.135516 0.051862 0)
        (0.124944 0.050546 0)
        (0.114743 0.049138 0)
        (0.104922 0.047638 0)
        (0.095492 0.046049 0)
        (0.08646 0.044374 0)
        (0.077836 0.042615 0)
        (0.069629 0.040776 0)
        (0.061847 0.038859 0)