/*--------------------------------*- C++ -*----------------------------------*\
  =========                 |
  \\      /  F ield         | OpenFOAM: The Open Source CFD Toolbox
   \\    /   O peration     | Website:  https://openfoam.org
    \\  /    A nd           | Version:  8
     \\/     M anipulation  |
\*---------------------------------------------------------------------------*/
FoamFile
{
    version     2.0;
    format      ascii;
    class       dictionary;
    location    "system";
    object      fvSolution;
}
// * * * * * * * * * * * * * * * * * * * * * * * * * * * * * * * * * * * * * //

solvers
{
    p
    {
        solver          GAMG;
        tolerance       1e-06;
        relTol          0.001;
        smoother        GaussSeidel;
        maxIter         100;
    }

     "(U|k|omega)"
    {
        solver          smoothSolver;
        smoother        GaussSeidel;
        tolerance       1e-8;
        relTol          0.1;
        nSweeps         1;
    }
}

SIMPLE
{
    nNonOrthogonalCorrectors 1;
    consistent yes;
 /*
    residualControl
    {
        p               1e-6;
        U               1e-5;
        "(k|omega|e)"   1e-5;
    }

    nNonOrthogonalCorrectors 0;
    pMinFactor      0.1;
    pMaxFactor      2;
    */
}

relaxationFactors
{
    field
    {
      p           0.3;
    }
    equations
    {
        "(U|k|omega|nuTilda)"     0.7;
    }
}


// ************************************************************************* //
